!-Generator IDFEditor 1.34
!-Option OriginalOrderTop UseSpecialFormat
!-NOTE: All comments with '!-' are ignored by the IDFEditor and are generated automatically.
!-      Use '!' comments if they need to be retained when using the IDFEditor.
! VAVSingleDuctReheat.IDF
! Basic file description:  1 story building divided into 3 interior conditioned zones. Roof with no plenum.
!                          No ground contact with floor. Outdoor air is modulated based on occupancy and floor area.
!
! Highlights:              Basic test of a simple VAV system.  This file is more or less
!                          identical to the TermReheat.idf file except that a VAV fan has
!                          replaced the constant volume fan and dampers with controls have
!                          been added to the zone equipment loop.
!
!
! Simulation Location/Run: CHICAGO_IL_USA TMY2-94846, 2 design days, 2 run periods,
!                          Run Control executes the design days only.
!
! Location:                Chicago, IL
!
! Design Days:             CHICAGO_IL_USA Annual Heating 99% Design Conditions DB, MaxDB= -17.3°C
!                          CHICAGO_IL_USA Annual Cooling 1% Design Conditions, MaxDB=  31.5°C MCWB=  23.0°C
!
! Run Period (Weather File): Winter 1/14, Summer 7/7, CHICAGO_IL_USA TMY2-94846
!
! Run Control:             No zone or system sizing, design day simulation.
!
! Building: Single floor rectangular L-shaped building 40 ft south wall, 40 ft west wall, zone height 10 feet.
!           There is a single window in West Zone's south wall. The walls are 1 in stucco over 4 in common brick
!           and gypboard. The roof is a built up roof with 1/2 in stone over 3/8 in felt over 1 in dense insulation
!           supported by 2 in heavy weight concrete. The window is single pane 3mm clear.
!           The window to wall ratio is approxomately 0.07.
!
!           The building is oriented due north.
!
! Floor Area:        130.1 m2 (1403 ft2)
! Number of Stories: 1
!
! Zone Description Details:
!
!       (0,12.192,0)                 (9.144,12.192,0)
!           ________________________________
!          |                                |
!          |                                |
!          |                                |
!          |                                |
!          |           North                |
!          |                                |
!          |                                |
!          |             (6.096,6.096,0)    |
!          |________________________________|____________ (12.192,6.069,0)
!          | (0,6.096,0)        |    (9.144,6.096,0)     |
!          |                    |                        |
!          |                    |                        |
!          |                    |                        |
!          |       West         |         East           |    window = *
!          |                    |                        |
!          |                    |                        |
!          |                    |                        |
!          |___**************___|________________________|
!
!      (0,0,0)             (6.069,0,0)               (12.192,0,0)
!
! Internal gains description:     ZONE West      - lighting is 0 watts, equip is 2928.751 watts, 3 occupants
! Internal gains description:     ZONE North     - lighting is 878.6252 watts, equip is 2928.751 watts, 4 occupants
! Internal gains description:     ZONE East      - lighting is 1464.375 watts, equip is 1464.375 watts, 3 occupants
!
! Interzone Surfaces:             3 interzone surfaces (see diagram)
! Internal Mass:                  None
! People:                         10
! Lights:                         2343 W
! Equipment:                      7323 W
! Windows:                        1
! Detached Shading:               None
! Daylight:                       None
! Natural Ventilation:            None
! Compact Schedules:              Yes
! Solair Distribution:            FullInteriorAndExterior
!
! HVAC:                           3 zone variable air volume reheat system using single variable volume air loop. Central chilled
!                                 water coil scheduled to provide 16 C winter and 13 C summer supply air temperature.
!                                 VAV with reheat boxes trim supply air temperature by mass flow rate and temperature  to meet zone thermostat set point.
!                                 Thermostat setting at 20 C in winter with 15 C set back temperature, 24 C in summer
!                                 with 30 C set back temperature. Cooling coil off in winter, reheat coil on all year.
!
! Zonal Equipment:                AirTerminal:SingleDuct:VAV:Reheat
! Central Air Handling Equipment: Yes,  Fan:VariableVolume
! System Equipment Autosize:      No (chilled water, condenser, and hot water loop volumes are autosized)
! Purchased Cooling:              No
! Purchased Heating:              No
! Purchased Chilled Water:        Yes (only used if alternate priority control equipment list is selected)
! Purchased Hot Water:            Yes
! Coils:                          Coil:Cooling:Water:DetailedGeometry, Coil:Heating:Water
! Pumps:                          Pump:VariableSpeed
! Boilers:                        None
! Chillers:                       Chiller:Electric (PlantEquipmentOperation:CoolingLoad set up for electric chiller only)
!                                 Chiller:ConstantCOP or DistrictCooling may be used if desired in various
!                                 combinations by changing priority control equipment list name in
!                                 PlantEquipmentOperation:CoolingLoad object.
! Towers:                         CoolingTower:SingleSpeed
!
! Results:
! Standard Reports:               None
! Timestep or Hourly Variables:   Timestep
! Time bins Report:               None
! HTML Report:                    None
! Environmental Emissions:        None
! Utility Tariffs:                None

  Version,7.1.0; !8.1;

  Timestep,6; !60; !1; !6; !RS: Setting to one minute for testing 2/24/18

  Building,
    NONE,                    !- Name
    0,                       !- North Axis {deg}
    Suburbs,                 !- Terrain
    3.9999999E-02,           !- Loads Convergence Tolerance Value
    0.4000000,               !- Temperature Convergence Tolerance Value {deltaC}
    FullInteriorAndExterior, !- Solar Distribution
    6, !25,                      !- Maximum Number of Warmup Days
    6;                       !- Minimum Number of Warmup Days

  HeatBalanceAlgorithm,ConductionTransferFunction;

  SurfaceConvectionAlgorithm:Inside,TARP;

  SurfaceConvectionAlgorithm:Outside,DOE-2;

  SimulationControl,
    No,                      !- Do Zone Sizing Calculation
    No,                      !- Do System Sizing Calculation
    No,                      !- Do Plant Sizing Calculation
    No, !Yes,                     !- Run Simulation for Sizing Periods
    Yes; !No;                      !- Run Simulation for Weather File Run Periods

  
  !RunPeriod,
  !  ,                        !- Name
  !  1,                       !- Begin Month
  !  14,                      !- Begin Day of Month
  !  1,                       !- End Month
  !  14,                      !- End Day of Month
  !  Tuesday,                 !- Day of Week for Start Day
  !  Yes,                     !- Use Weather File Holidays and Special Days
  !  Yes,                     !- Use Weather File Daylight Saving Period
  !  No,                      !- Apply Weekend Holiday Rule
  !  Yes,                     !- Use Weather File Rain Indicators
  !  Yes;                     !- Use Weather File Snow Indicators

  RunPeriod,
    ,                        !- Name
    9, !5, !7,                       !- Begin Month
    7, !22,                       !- Begin Day of Month
    9, !5, !7,                       !- End Month
    7, !18, !11, !25,                       !- End Day of Month
    Tuesday,                 !- Day of Week for Start Day
    Yes,                     !- Use Weather File Holidays and Special Days
    Yes,                     !- Use Weather File Daylight Saving Period
    No,                      !- Apply Weekend Holiday Rule
    Yes,                     !- Use Weather File Rain Indicators
    No;                      !- Use Weather File Snow Indicators

  !Site:Location,
  !  CHICAGO_IL_USA TMY2-94846,  !- Name
  !  42.00,                   !- Latitude {deg}
  !  -87.88,                  !- Longitude {deg}
  !  -6.00,                   !- Time Zone {hr}
  !  190.00;                  !- Elevation {m}

! CHICAGO_IL_USA Annual Heating 99% Design Conditions DB, MaxDB= -17.3°C

  !SizingPeriod:DesignDay,
  !  CHICAGO_IL_USA Annual Heating 99% Design Conditions DB,  !- Name
  !  1,                       !- Month
  !  21,                      !- Day of Month
  !  WinterDesignDay,         !- Day Type
  !  -17.3,                   !- Maximum Dry-Bulb Temperature {C}
  !  0.0,                     !- Daily Dry-Bulb Temperature Range {deltaC}
  !  ,                        !- Dry-Bulb Temperature Range Modifier Type
  !  ,                        !- Dry-Bulb Temperature Range Modifier Day Schedule Name
  !  Wetbulb,                 !- Humidity Condition Type
  !  -17.3,                   !- Wetbulb or DewPoint at Maximum Dry-Bulb {C}
  !  ,                        !- Humidity Condition Day Schedule Name
  !  ,                        !- Humidity Ratio at Maximum Dry-Bulb {kgWater/kgDryAir}
  !  ,                        !- Enthalpy at Maximum Dry-Bulb {J/kg}
  !  ,                        !- Daily Wet-Bulb Temperature Range {deltaC}
  !  99063.,                  !- Barometric Pressure {Pa}
  !  4.9,                     !- Wind Speed {m/s}
  !  270,                     !- Wind Direction {deg}
  !  No,                      !- Rain Indicator
  !  No,                      !- Snow Indicator
  !  No,                      !- Daylight Saving Time Indicator
  !  ASHRAEClearSky,          !- Solar Model Indicator
  !  ,                        !- Beam Solar Day Schedule Name
  !  ,                        !- Diffuse Solar Day Schedule Name
  !  ,                        !- ASHRAE Clear Sky Optical Depth for Beam Irradiance (taub) {dimensionless}
  !  ,                        !- ASHRAE Clear Sky Optical Depth for Diffuse Irradiance (taud) {dimensionless}
  !  0.0;                     !- Sky Clearness

! CHICAGO_IL_USA Annual Cooling 1% Design Conditions, MaxDB=  31.5°C MCWB=  23.0°C

  !SizingPeriod:DesignDay,
  !  CHICAGO_IL_USA Annual Cooling 1% Design Conditions DB/MCWB,  !- Name
  !  7,                       !- Month
  !  21,                      !- Day of Month
  !  SummerDesignDay,         !- Day Type
  !  31.5,                    !- Maximum Dry-Bulb Temperature {C}
  !  10.7,                    !- Daily Dry-Bulb Temperature Range {deltaC}
  !  ,                        !- Dry-Bulb Temperature Range Modifier Type
  !  ,                        !- Dry-Bulb Temperature Range Modifier Day Schedule Name
  !  Wetbulb,                 !- Humidity Condition Type
  !  23.0,                    !- Wetbulb or DewPoint at Maximum Dry-Bulb {C}
  !  ,                        !- Humidity Condition Day Schedule Name
  !  ,                        !- Humidity Ratio at Maximum Dry-Bulb {kgWater/kgDryAir}
  !  ,                        !- Enthalpy at Maximum Dry-Bulb {J/kg}
  !  ,                        !- Daily Wet-Bulb Temperature Range {deltaC}
  !  99063.,                  !- Barometric Pressure {Pa}
  !  5.3,                     !- Wind Speed {m/s}
  !  230,                     !- Wind Direction {deg}
  !  No,                      !- Rain Indicator
  !  No,                      !- Snow Indicator
  !  No,                      !- Daylight Saving Time Indicator
  !  ASHRAEClearSky,          !- Solar Model Indicator
  !  ,                        !- Beam Solar Day Schedule Name
  !  ,                        !- Diffuse Solar Day Schedule Name
  !  ,                        !- ASHRAE Clear Sky Optical Depth for Beam Irradiance (taub) {dimensionless}
  !  ,                        !- ASHRAE Clear Sky Optical Depth for Diffuse Irradiance (taud) {dimensionless}
  !  1.0;                     !- Sky Clearness

    Site:Location,
    Stillwater.Rgnl.AP.723545, !- Name
     36.15,                   !- Latitude {deg}
    -97.07,                 !- Longitude {deg}
    -6,                   !- Time Zone {hr}
    308;                 !- Elevation {m}

 ! Miami Intl Ap Annual Cooling Design Conditions Wind Speed=4.5m/s Wind Dir=140
 ! Hottest Month=July
 ! Miami Intl Ap FL USA Annual Cooling (DB=>MWB) .4%, MaxDB=33.2°C MWB=25.3°C

    SizingPeriod:DesignDay,	!RS: Switching back
    Stillwater, !Denver Centennial Ann Clg 1% Condns DB=>MWB,  !- Name
    7,                       !- Month
    22,                      !- Day of Month
    SummerDesignDay,         !- Day Type
    35,                      !- Maximum Dry-Bulb Temperature {C}
    5, !0.0,                    !- Daily Dry-Bulb Temperature Range {deltaC}
    ,                        !- Dry-Bulb Temperature Range Modifier Type
    ,                        !- Dry-Bulb Temperature Range Modifier Schedule Name
    Wetbulb,                 !- Humidity Condition Type
    23.889,                    !- Wetbulb or DewPoint at Maximum Dry-Bulb {C}
    ,                        !- Humidity Condition Day Schedule Name
    ,                        !- Humidity Ratio at Maximum Dry-Bulb {kgWater/kgDryAir}
    ,                        !- Enthalpy at Maximum Dry-Bulb {J/kg}
    5, !0.0,                        !- Daily Wet-Bulb Temperature Range {deltaC}
    100499, !81560.,                  !- Barometric Pressure {Pa}
    4.9,                     !- Wind Speed {m/s}
    0,                       !- Wind Direction {deg}
    No,                      !- Rain Indicator
    No,                      !- Snow Indicator
    No,                      !- Daylight Saving Time Indicator
    ASHRAEClearSky,          !- Solar Model IndicatorC
    ,                        !- Beam Solar Day Schedule Name
    ,                        !- Diffuse Solar Day Schedule Name
    ,                        !- ASHRAE Clear Sky Optical Depth for Beam Irradiance (taub) {dimensionless}
    ,                        !- ASHRAE Clear Sky Optical Depth for Diffuse Irradiance (taud) {dimensionless}
    1.00;                    !- Sky Clearness

  Material,
    A1 - 1 IN STUCCO,        !- Name
    Smooth,                  !- Roughness
    2.5389841E-02,           !- Thickness {m}
    0.6918309,               !- Conductivity {W/m-K}
    1858.142,                !- Density {kg/m3}
    836.8000,                !- Specific Heat {J/kg-K}
    0.9000000,               !- Thermal Absorptance
    0.9200000,               !- Solar Absorptance
    0.9200000;               !- Visible Absorptance

  Material,
    C4 - 4 IN COMMON BRICK,  !- Name
    Rough,                   !- Roughness
    0.1014984,               !- Thickness {m}
    0.7264224,               !- Conductivity {W/m-K}
    1922.216,                !- Density {kg/m3}
    836.8000,                !- Specific Heat {J/kg-K}
    0.9000000,               !- Thermal Absorptance
    0.7600000,               !- Solar Absorptance
    0.7600000;               !- Visible Absorptance

  Material,
    E1 - 3 / 4 IN PLASTER OR GYP BOARD,  !- Name
    Smooth,                  !- Roughness
    1.9050000E-02,           !- Thickness {m}
    0.7264224,               !- Conductivity {W/m-K}
    1601.846,                !- Density {kg/m3}
    836.8000,                !- Specific Heat {J/kg-K}
    0.9000000,               !- Thermal Absorptance
    0.9200000,               !- Solar Absorptance
    0.9200000;               !- Visible Absorptance

  Material,
    C6 - 8 IN CLAY TILE,     !- Name
    Smooth,                  !- Roughness
    0.2033016,               !- Thickness {m}
    0.5707605,               !- Conductivity {W/m-K}
    1121.292,                !- Density {kg/m3}
    836.8000,                !- Specific Heat {J/kg-K}
    0.9000000,               !- Thermal Absorptance
    0.8200000,               !- Solar Absorptance
    0.8200000;               !- Visible Absorptance

  Material,
    C10 - 8 IN HW CONCRETE,  !- Name
    MediumRough,             !- Roughness
    0.2033016,               !- Thickness {m}
    1.729577,                !- Conductivity {W/m-K}
    2242.585,                !- Density {kg/m3}
    836.8000,                !- Specific Heat {J/kg-K}
    0.9000000,               !- Thermal Absorptance
    0.6500000,               !- Solar Absorptance
    0.6500000;               !- Visible Absorptance

  Material,
    E2 - 1 / 2 IN SLAG OR STONE,  !- Name
    Rough,                   !- Roughness
    1.2710161E-02,           !- Thickness {m}
    1.435549,                !- Conductivity {W/m-K}
    881.0155,                !- Density {kg/m3}
    1673.600,                !- Specific Heat {J/kg-K}
    0.9000000,               !- Thermal Absorptance
    0.5500000,               !- Solar Absorptance
    0.5500000;               !- Visible Absorptance

  Material,
    E3 - 3 / 8 IN FELT AND MEMBRANE,  !- Name
    Rough,                   !- Roughness
    9.5402403E-03,           !- Thickness {m}
    0.1902535,               !- Conductivity {W/m-K}
    1121.292,                !- Density {kg/m3}
    1673.600,                !- Specific Heat {J/kg-K}
    0.9000000,               !- Thermal Absorptance
    0.7500000,               !- Solar Absorptance
    0.7500000;               !- Visible Absorptance

  Material,
    B5 - 1 IN DENSE INSULATION,  !- Name
    VeryRough,               !- Roughness
    2.5389841E-02,           !- Thickness {m}
    4.3239430E-02,           !- Conductivity {W/m-K}
    91.30524,                !- Density {kg/m3}
    836.8000,                !- Specific Heat {J/kg-K}
    0.9000000,               !- Thermal Absorptance
    0.5000000,               !- Solar Absorptance
    0.5000000;               !- Visible Absorptance

  Material,
    B4 - 2 IN DENSE INSULATION,  !- Name
    VeryRough,               !- Roughness
    5.0779682-02,           !- Thickness {m}
    4.3239430E-02,           !- Conductivity {W/m-K}
    91.30524,                !- Density {kg/m3}
    836.8000,                !- Specific Heat {J/kg-K}
    0.9000000,               !- Thermal Absorptance
    0.5000000,               !- Solar Absorptance
    0.5000000;               !- Visible Absorptance

  Material,
    B4 - 3 IN DENSE INSULATION,  !- Name
    VeryRough,               !- Roughness
    7.6169523-02,           !- Thickness {m}
    4.3239430E-02,           !- Conductivity {W/m-K}
    91.30524,                !- Density {kg/m3}
    836.8000,                !- Specific Heat {J/kg-K}
    0.9000000,               !- Thermal Absorptance
    0.5000000,               !- Solar Absorptance
    0.5000000;               !- Visible Absorptance
	
  Material,
    B6 - 6 IN DENSE INSULATION,  !- Name
    VeryRough,               !- Roughness
    15.2339046E-02,           !- Thickness {m}
    4.3239430E-02,           !- Conductivity {W/m-K}
    91.30524,                !- Density {kg/m3}
    836.8000,                !- Specific Heat {J/kg-K}
    0.9000000,               !- Thermal Absorptance
    0.5000000,               !- Solar Absorptance
    0.5000000;               !- Visible Absorptance
	
  Material,
    C12 - 2 IN HW CONCRETE,  !- Name
    MediumRough,             !- Roughness
    5.0901599E-02,           !- Thickness {m}
    1.729577,                !- Conductivity {W/m-K}
    2242.585,                !- Density {kg/m3}
    836.8000,                !- Specific Heat {J/kg-K}
    0.9000000,               !- Thermal Absorptance
    0.6500000,               !- Solar Absorptance
    0.6500000;               !- Visible Absorptance

  WindowMaterial:Glazing,
    WIN-LAY-GLASS-LIGHT,     !- Name
    SpectralAverage,         !- Optical Data Type
    ,                        !- Window Glass Spectral Data Set Name
    0.003,                   !- Thickness {m}
    0.90,                    !- Solar Transmittance at Normal Incidence
    0.031,                   !- Front Side Solar Reflectance at Normal Incidence
    0.031,                   !- Back Side Solar Reflectance at Normal Incidence
    0.90,                    !- Visible Transmittance at Normal Incidence
    0.05,                    !- Front Side Visible Reflectance at Normal Incidence
    0.05,                    !- Back Side Visible Reflectance at Normal Incidence
    0.0,                     !- Infrared Transmittance at Normal Incidence
    0.84,                    !- Front Side Infrared Hemispherical Emissivity
    0.84,                    !- Back Side Infrared Hemispherical Emissivity
    0.9;                     !- Conductivity {W/m-K}

  Construction,
    EXTWALL80,               !- Name
    A1 - 1 IN STUCCO,        !- Outside Layer
    C4 - 4 IN COMMON BRICK,  !- Layer 2
	B5 - 1 IN DENSE INSULATION, !B4 - 2 IN DENSE INSULATION, !B5 - 1 IN DENSE INSULATION, !B6 - 6 IN DENSE INSULATION, !RS: Adding some insulation in to decrease load (11/16/18)
    E1 - 3 / 4 IN PLASTER OR GYP BOARD;  !- Layer 3

  Construction,
    PARTITION06,             !- Name
    E1 - 3 / 4 IN PLASTER OR GYP BOARD,  !- Outside Layer
    C6 - 8 IN CLAY TILE,     !- Layer 2
    E1 - 3 / 4 IN PLASTER OR GYP BOARD;  !- Layer 3

  Construction,
    FLOOR SLAB 8 IN,         !- Name
    C10 - 8 IN HW CONCRETE;  !- Outside Layer

  Construction,
    ROOF34,                  !- Name
    E2 - 1 / 2 IN SLAG OR STONE,  !- Outside Layer
    E3 - 3 / 8 IN FELT AND MEMBRANE,  !- Layer 2
    B5 - 1 IN DENSE INSULATION,  !- Layer 3
    C12 - 2 IN HW CONCRETE;  !- Layer 4

  Construction,
    WIN-CON-LIGHT,           !- Name
    WIN-LAY-GLASS-LIGHT;     !- Outside Layer

  ScheduleTypeLimits,
    Any Number;              !- Name

  ScheduleTypeLimits,
    Fraction,                !- Name
    0.0,                     !- Lower Limit Value
    1.0,                     !- Upper Limit Value
    CONTINUOUS;              !- Numeric Type

  ScheduleTypeLimits,
    Temperature,             !- Name
    -60,                     !- Lower Limit Value
    200,                     !- Upper Limit Value
    CONTINUOUS,              !- Numeric Type
    Temperature;             !- Unit Type

  ScheduleTypeLimits,
    Control Type,            !- Name
    0,                       !- Lower Limit Value
    4,                       !- Upper Limit Value
    DISCRETE;                !- Numeric Type

  ScheduleTypeLimits,
    On/Off,                  !- Name
    0,                       !- Lower Limit Value
    1,                       !- Upper Limit Value
    DISCRETE;                !- Numeric Type

  Schedule:Compact,
    ACTIVITY SCH,            !- Name
    ANY NUMBER,              !- Schedule Type Limits Name
    Through: 12/31,          !- Field 1
    For: Alldays,            !- Field 2
    Until: 12:00,0, !0; !No Internal Load !131.80;     !- Field 3
    Until: 24:00,2342; !0; !No Internal Load !131.80;     !- Field 3

  Schedule:Compact,
    WORK EFF SCH,            !- Name
    ANY NUMBER,              !- Schedule Type Limits Name
    Through: 12/31,          !- Field 1
    For: Alldays,            !- Field 2
    Until: 24:00,0; !0.5; !0.00;       !- Field 3

  Schedule:Compact,
    CLOTHING SCH,            !- Name
    ANY NUMBER,              !- Schedule Type Limits Name
    Through: 12/31,          !- Field 1
    For: Alldays,            !- Field 2
    Until: 24:00,0; !1.00;       !- Field 3

  Schedule:Compact,
    AIR VELO SCH,            !- Name
    ANY NUMBER,              !- Schedule Type Limits Name
    Through: 12/31,          !- Field 1
    For: Alldays,            !- Field 2
    Until: 24:00,0; !0.137;      !- Field 3

  Schedule:Compact,
    Office Occupancy,        !- Name
    ANY NUMBER,              !- Schedule Type Limits Name
    Through: 12/31,          !- Field 1
    For: Alldays, !Weekdays SummerDesignDay, !- Field 2
    Until: 24:00,1; !0.00;       !- Field 22

  Schedule:Compact,
    Intermittent,            !- Name
    !ANY NUMBER,              !- Schedule Type Limits Name
    Fraction,                !- Schedule Type Limits Name
    Through: 12/31,          !- Field 1
    For: AllDays, 
    Until: 24:00,1.0; !RS: Testing: !1.0;

  Schedule:Compact,
    Office Lighting,         !- Name
    Fraction,                !- Schedule Type Limits Name
    Through: 12/31,          !- Field 1
    For: AllDays, 
    Until: 24:00,0; !No Internal Load !1.0; !RS: Testing: !1.0;

  Schedule:Compact,
    ON PEAK,                 !- Name
    FRACTION,                !- Schedule Type Limits Name
    Through: 12/31,          !- Field 1
    For: Alldays,            !- Field 2
    Until: 24:00,1; !0.00;       !- Field 7

  Schedule:Compact,
    OFF PEAK,                !- Name
    FRACTION,                !- Schedule Type Limits Name
    Through: 12/31,          !- Field 1
    For: Alldays,            !- Field 2
    Until: 24:00,0; !1.00;       !- Field 7

  Schedule:Compact,
    ON,                      !- Name
    FRACTION,                !- Schedule Type Limits Name
    Through: 12/31,          !- Field 1
    For: Alldays,            !- Field 2
    Until: 24:00,1.00;       !- Field 3

  Schedule:Compact,
    SEASONAL RESET SUPPLY AIR TEMP SCH,  !- Name
    TEMPERATURE,             !- Schedule Type Limits Name
    Through: 12/31,           !- Field 5
    For: Alldays,            !- Field 6
    Until: 24:00,10; !13.00;      !- Field 11
	
  Schedule:Compact,
    SEASONAL RESET RETURN AIR TEMP SCH,  !- Name
    TEMPERATURE,             !- Schedule Type Limits Name
    Through: 12/31,           !- Field 5
    For: Alldays,            !- Field 6
    Until: 24:00,23; !13.00;      !- Field 11

  !Schedule:Compact,
  !  CW LOOP TEMP SCHEDULE,   !- Name
  !  TEMPERATURE,             !- Schedule Type Limits Name
  !  Through: 12/31,          !- Field 1
  !  For: Alldays,            !- Field 2
  !  Until: 24:00,6.67;       !- Field 3

  !Schedule:Compact,
  !  HW LOOP TEMP SCHEDULE,   !- Name
  !  TEMPERATURE,             !- Schedule Type Limits Name
  !  Through: 12/31,          !- Field 1
  !  For: Alldays,            !- Field 2
  !  Until: 24:00,60.00;      !- Field 3

  Schedule:Compact,
    FANANDCOILAVAILSCHED,    !- Name
    FRACTION,                !- Schedule Type Limits Name
    Through: 12/31,          !- Field 16
    For: Alldays,            !- Field 17
    Until: 24:00,1.00;       !- Field 18
	
  !Schedule:Compact,
  !  FANANDCOILAVAILSCHED2,    !- Name
  !  FRACTION,                !- Schedule Type Limits Name
  !  Through: 12/31,          !- Field 16
  !  For: Alldays,            !- Field 17
  !  Until: 24:00,0.00;       !- Field 18
	
  Schedule:Compact,	!RS: Turning the reheat coil off
    ReheatCoilAvailSched,
	FRACTION,
	Through: 12/31,
	For: Alldays,
	Until: 24.00,0; !1.00; !0;

  Schedule:Compact,
    CoolingCoilAvailSched,   !- Name
    Fraction,                !- Schedule Type Limits Name
    Through: 12/31,          !- Field 1
    For: AllDays,            !- Field 2
    Until: 24:00,1.0;        !- Field 3

  Schedule:Compact,
    HEATING SETPOINTS,       !- Name
    TEMPERATURE,             !- Schedule Type Limits Name
    Through: 12/31,          !- Field 1
    For: Alldays,            !- Field 2
    Until: 24:00,15.00;      !- Field 7

  Schedule:Compact,
    COOLING SETPOINTS,       !- Name
    TEMPERATURE,             !- Schedule Type Limits Name
    Through: 12/31,          !- Field 1
    For: Alldays,            !- Field 2
    Until: 24:00,23; !17; !23;      !- Field 7

  Schedule:Compact,
    ZONE CONTROL TYPE SCHED, !- Name
    CONTROL TYPE,            !- Schedule Type Limits Name
    Through: 12/31,          !- Field 1
    For: Alldays,            !- Field 2
    Until: 24:00,4;          !- Field 3
	
  Schedule:Compact,
    Reheat Temp Schedule, !-Name
    TEMPERATURE,             !- Schedule Type Limits Name
    Through: 12/31,          !- Field 1
    For: Alldays,            !- Field 2
    Until: 24:00,60.00;      !- Field 3
	
  !Schedule:Compact,
	!OARequirements Sched, !- Name
    !ANY NUMBER,              !- Schedule Type Limits Name
    !Through: 12/31,          !- Field 1
    !For: Alldays, !Weekdays SummerDesignDay, !- Field 2
	!Until: 24:00, 1;	!- Field 3

  Site:GroundTemperature:BuildingSurface,22.03,22.03,22.13,22.30,22.43,22.52,22.62,22.77,22.78,22.55,22.44,22.20;


! original zone origin (0,0,0)

  Zone,
    West Zone,               !- Name
    0,                       !- Direction of Relative North {deg}
    0,                       !- X Origin {m}
    0,                       !- Y Origin {m}
    0,                       !- Z Origin {m}
    1,                       !- Type
    1, !1,                       !- Multiplier
    autocalculate,           !- Ceiling Height {m}
    autocalculate;           !- Volume {m3}

! original zone origin (6.096,0,0)

  Zone,
    EAST ZONE,               !- Name
    0,                       !- Direction of Relative North {deg}
    0,                       !- X Origin {m}
    0,                       !- Y Origin {m}
    0,                       !- Z Origin {m}
    1,                       !- Type
    1,                       !- Multiplier
    autocalculate,           !- Ceiling Height {m}
    autocalculate;           !- Volume {m3}

! original zone origin (0,6.096,0)


  People,
    West Zone,               !- Name
    West Zone,               !- Zone or ZoneList Name
    Office Occupancy,        !- Number of People Schedule Name
    people,                  !- Number of People Calculation Method
    0, !1, !3.000000,                !- Number of People
    ,                        !- People per Zone Floor Area {person/m2}
    ,                        !- Zone Floor Area per Person {m2/person}
    0, !0.3000000,               !- Fraction Radiant
    0, !0.5,                        !- Sensible Heat Fraction